Version 4
SHEET 1 880 680
WIRE 512 -96 256 -96
WIRE -80 -64 -368 -64
WIRE 32 -64 -80 -64
WIRE 176 -16 176 -96
WIRE 176 -16 48 -16
WIRE 384 -16 176 -16
WIRE 48 48 48 -16
WIRE 384 48 384 -16
WIRE -80 64 -80 -64
WIRE 112 96 112 -64
WIRE 816 96 448 96
WIRE -368 112 -368 -64
WIRE 48 160 48 144
WIRE 192 160 192 96
WIRE 192 160 48 160
WIRE 256 160 256 96
WIRE 384 160 384 144
WIRE 384 160 256 160
WIRE 48 192 48 160
WIRE 384 192 384 160
WIRE 192 208 192 160
WIRE 256 208 256 160
WIRE -80 240 -80 144
WIRE -16 240 -80 240
WIRE 320 240 288 240
WIRE 288 256 288 240
WIRE 48 368 48 288
WIRE 208 368 48 368
WIRE 384 368 384 288
WIRE 384 368 208 368
WIRE 208 384 208 368
WIRE 512 384 512 -96
WIRE 512 384 208 384
WIRE 208 416 208 384
WIRE -368 464 -368 192
WIRE 288 464 288 336
WIRE 288 464 -368 464
WIRE 816 464 816 176
WIRE 816 464 288 464
FLAG 208 416 0
SYMBOL npn -16 192 R0
SYMATTR InstName Q1
SYMBOL npn 320 192 R0
SYMATTR InstName Q2
SYMBOL voltage 160 -96 R270
WINDOW 0 32 56 VTop 2
WINDOW 3 -32 56 VBottom 2
SYMATTR InstName V1
SYMATTR Value 10
SYMBOL pnp 112 144 R180
SYMATTR InstName Q3
SYMBOL pnp 448 144 R180
SYMATTR InstName Q4
SYMBOL voltage -368 96 R0
WINDOW 123 24 124 Left 2
WINDOW 39 0 0 Left 0
SYMATTR InstName V2
SYMATTR Value SINE(0 5 2 0 0 0 8)
SYMBOL res -64 160 R180
WINDOW 0 36 76 Left 2
WINDOW 3 36 40 Left 2
SYMATTR InstName R3
SYMATTR Value 100
SYMBOL res 16 -48 R270
WINDOW 0 32 56 VTop 2
WINDOW 3 0 56 VBottom 2
SYMATTR InstName R1
SYMATTR Value 100
SYMBOL res 304 352 R180
WINDOW 0 36 76 Left 2
WINDOW 3 36 40 Left 2
SYMATTR InstName R2
SYMATTR Value 100
SYMBOL res 832 192 R180
WINDOW 0 36 76 Left 2
WINDOW 3 36 40 Left 2
SYMATTR InstName R4
SYMATTR Value 100
SYMBOL LED 192 112 R270
WINDOW 0 72 32 VTop 2
WINDOW 3 0 32 VBottom 2
SYMATTR InstName D1
SYMBOL LED 256 192 R90
WINDOW 0 0 32 VBottom 2
WINDOW 3 72 32 VTop 2
SYMATTR InstName D2
TEXT -402 474 Left 2 !.tran 2
